$DATA1 SOURCE='HSPICE' VERSION='H-2013.03-SP1 32-BIT'
.TITLE ' '
 v_saida_xor      v_saida_inv      temper           alter#            
  8.152e-03          0.6990         125.0000        1                 
