***** HSPICE -- H-2013.03-SP1 32-BIT (May 29 2013) RHEL32 ******
 Input File: xor.cir
 lic:
 lic: FLEXlm: v10.9.8
 lic: USER:   rafaelneves          HOSTNAME: sagittarius-a
 lic: HOSTID: 00039988e3a4         PID:      5953
 lic: Using FLEXlm license file:
 lic: 27020@localhost
 lic: Checkout 1 hspice
 lic: License/Maintenance for hspice will expire on 08-jun-2019/2017.12
 lic: 1(in_use)/50(total) FLOATING license(s) on SERVER 27020@localhost
 lic:
 lic: Release hspice token(s)
